#======================================================================

# CRYSTAL DATA

#----------------------------------------------------------------------

data_VESTA_phase_1


_chemical_name_common                  'a-RuCl3_monoclinic'
_cell_length_a                         5.97620
_cell_length_b                         10.34200
_cell_length_c                         6.01300
_cell_angle_alpha                      90
_cell_angle_beta                       108.87000
_cell_angle_gamma                      90
_space_group_name_H-M_alt              'C 2/m'
_space_group_IT_number                 12

loop_
_space_group_symop_operation_xyz
   'x, y, z'
   '-x, -y, -z'
   '-x, y, -z'
   'x, -y, z'
   'x+1/2, y+1/2, z'
   '-x+1/2, -y+1/2, -z'
   '-x+1/2, y+1/2, -z'
   'x+1/2, -y+1/2, z'

loop_
   _atom_site_label
   _atom_site_occupancy
   _atom_site_fract_x
   _atom_site_fract_y
   _atom_site_fract_z
   _atom_site_adp_type
   _atom_site_B_iso_or_equiv
   _atom_site_type_symbol
   Ru         1.0     0.000000      0.334400      0.000000     Biso  1.000000 Ru
   Cl1        1.0     0.751400      0.173500      0.766200     Biso  1.000000 Cl
   Cl2        1.0     0.730200      0.000000      0.238900     Biso  1.000000 Cl
