#======================================================================

# CRYSTAL DATA

#----------------------------------------------------------------------

data_VESTA_phase_1


_pd_phase_name                         'New structure'
_cell_length_a                         5.63651
_cell_length_b                         5.58361
_cell_length_c                         7.82321
_cell_angle_alpha                      90
_cell_angle_beta                       89.81500
_cell_angle_gamma                      90
_symmetry_space_group_name_H-M         'P 21/n'
_symmetry_Int_Tables_number            14

loop_
_symmetry_equiv_pos_as_xyz
   'x, y, z'
   '-x, -y, -z'
   '-x+1/2, y+1/2, -z+1/2'
   'x+1/2, -y+1/2, z+1/2'

loop_
   _atom_site_label
   _atom_site_occupancy
   _atom_site_fract_x
   _atom_site_fract_y
   _atom_site_fract_z
   _atom_site_adp_type
   _atom_site_B_iso_or_equiv
   _atom_site_type_symbol
   Pb         1.0     0.005800      0.511800      0.250700     Biso  1.000000 Pb
   Co         1.0     0.000000      0.000000      0.000000     Biso  1.000000 Co
   Os         1.0     0.000000      0.000000      0.500000     Biso  1.000000 Os
   O1         1.0    -0.066100     -0.009400      0.258100     Biso  1.000000 O
   O2         1.0     0.241200      0.282200      0.035400     Biso  1.000000 O
   O3         1.0     0.282300      0.764600      0.036500     Biso  1.000000 O
